83
Model[1]: Jmol 14.6.4_2016.11.05  2016-11-10 03:30
C      -0.18135     -0.12516     -0.08576
C       0.94901      0.69667      0.77255
N      -0.94462     -1.10329      0.74133
C      -1.26251      0.70006     -1.01616
Br      0.88544     -1.19647     -1.36044
N      -2.20925      1.63590     -0.28712
N      -2.06763     -0.24023     -1.88645
Br     -0.38810      1.97194     -2.24420
Br      0.18131      1.90321      2.09531
Br      2.02899      1.95006     -0.35496
C       1.99738     -0.16141      1.60835
N       2.91157     -1.01534      0.81674
Br      1.25875     -1.18564      3.10743
Br      3.49525     -2.50273      1.84575
Br      4.54490     -0.11016      0.51981
Br     -1.38959      2.94853      0.78161
Br     -3.49274      0.91225      0.88892
Br     -3.29095      0.45181     -3.15393
Br     -2.19287     -2.14367     -1.76262
Cl     -2.12536     -0.47542      1.83653
Br     -0.03234     -2.46913      1.64901
Br      3.41347      3.31123      1.06933
Br      1.01342      3.74148     -1.52259
Cl     -5.64361      0.55735      0.38822
Cl     -3.32760      1.77864     -4.94829
Cl     -0.70180     -4.54035      2.14711
Cl     -0.11334     -0.56948      4.75588
Cl      2.70782     -2.63811      3.89744
Cl      3.00906      1.24870     -2.25212
Cl      6.13115     -0.14794     -1.05400
Cl      5.64604      3.41424      1.17068
Li     -2.67283     -1.18019      3.87559
Li     -0.70267     -0.52748     -3.26083
Li     -4.01143     -3.63750     -1.34374
Li     -6.61118     -3.55115     -0.71611
Li      0.07123     -0.23006     -5.82198
Li     -2.20254      0.00492     -7.16594
Li      4.62211      1.48794     -3.76050
Li      7.49193      1.27292     -2.07800
Li      3.19278      1.15718      2.61306
Li      5.74000     -3.27402      1.47683
Li      3.64728     -3.09623      5.86126
Li     -0.58652      1.93032      4.36302
Li      0.09572      1.34075     -4.48911
Li      1.59324      5.05844     -3.43660
Li      4.35955      2.25073     -0.77237
Li      5.45113      0.95996      2.45944
Li      7.55226      4.34331      0.50539
Li      3.08798      3.08908      3.42422
Li      2.24287     -0.00463      4.92950
Li     -0.89977      0.00077      6.75131
Li     -4.02970      2.33165      2.74187
Li     -5.59454     -0.01508     -2.69471
Li     -3.52872     -0.75941     -0.73192
Li      0.15872      1.43984     -2.27673
Ca     -3.29025      1.10920      5.62113
Ca      4.21364      4.99420      5.57854
Ca      3.27988      5.99609      1.92627
Ca      0.96253      4.41559      3.07541
Ca     -1.90363      5.69615      1.05598
Ca     -3.49620      3.06901     -1.70340
Ca      1.64592      6.28266     -0.51036
Ca     -1.46939      4.14824     -3.66295
Ca     -4.13178      4.23801     -5.48221
Ca     -0.03991      6.34733     -1.40731
Ca      8.99699      6.45483     -1.23293
Ca     10.49197      0.82925     -2.66762
Ca      7.70612     -2.18546     -1.63620
Ca      7.84503     -1.04410      1.75334
Ca      4.81425     -5.06461      7.93807
Ca     -0.18272     -7.11539      2.43394
Ca     -4.74308     -1.61052     -6.50963
Ca      2.56914      0.58568     -7.45375
Ca      0.65832      3.20395     -6.88961
Ca      7.17581      2.60070     -5.11224
Ca      2.69924      6.47473     -5.95141
Ca      6.66925      3.83198     -2.09114
Ca      8.35205     -4.96556      1.62150
Ca      5.30539     -4.62679      2.14355
Ca      2.39508     -0.75258      7.92382
Ca     -2.73817     -0.73405      9.11937
Ca     -4.56345     -2.03358      6.16504
Ca      0.71507      3.36408      6.76885
